Circuit: * C:\Users\sethr\OneDrive\Desktop\ECEN350\Labs\Voltage Divider Lab\DMM_Lab.asc

Direct Newton iteration for .op point succeeded.

Date: Fri Sep 19 14:48:48 2025
Total elapsed time: 0.055 seconds.

tnom = 27
temp = 27
method = trap
totiter = 3
traniter = 0
tranpoints = 0
accept = 0
rejected = 0
matrix size = 6
fillins = 0
solver = Normal
Matrix Compiler1: 200 bytes object code size
Matrix Compiler2: 394 bytes object code size
