Circuit: * C:\Users\sethr\OneDrive\Desktop\ECEN-350\ECEN350\HW\Diode Circuits HW 2\Diodes Circuits HW 2.asc

.OP point found by inspection.

Date: Tue Oct 07 15:20:23 2025
Total elapsed time: 0.121 seconds.

tnom = 27
temp = 27
method = modified trap
totiter = 2183
traniter = 2183
tranpoints = 1057
accept = 1048
rejected = 9
matrix size = 9
fillins = 0
solver = Normal
Matrix Compiler1: 350 bytes object code size  0.1/0.1/[0.1]
Matrix Compiler2: 613 bytes object code size  0.1/0.2/[0.1]

