Circuit: * C:\Users\sethr\OneDrive\Desktop\ECEN350\HW\pn_Junction_Diodes_HW.asc

Direct Newton iteration for .op point succeeded.
Semiconductor Device Operating Points:
                        --- Diodes ---
Name:      d1
Model:   1n4007
Id:      1.00e-03
Vd:      7.41e-01
Req:     3.25e+01
CAP:     6.86e-08



Date: Fri Sep 19 12:36:06 2025
Total elapsed time: 0.845 seconds.

tnom = 27
temp = 125
method = trap
totiter = 8
traniter = 0
tranpoints = 0
accept = 0
rejected = 0
matrix size = 2
fillins = 0
solver = Normal
Matrix Compiler1: 54 bytes object code size
Matrix Compiler2: 116 bytes object code size
