Circuit: * C:\Users\sethr\OneDrive\Desktop\ECEN-350\ECEN350\HW\Diodes Circuits HW1\DiodesHW1.asc

Direct Newton iteration for .op point succeeded.
Semiconductor Device Operating Points:
                        --- Diodes ---
Name:      d3          d2          d1
Model:   d1n4007     d1n4007     d1n4007
Id:      7.98e-03    7.98e-03    7.98e-03
Vd:      6.74e-01    6.74e-01    6.74e-01
Req:     5.61e+00    5.61e+00    5.61e+00
CAP:     7.70e-07    7.70e-07    7.70e-07



Date: Mon Sep 29 16:06:22 2025
Total elapsed time: 0.092 seconds.

tnom = 27
temp = 27
method = trap
totiter = 5
traniter = 0
tranpoints = 0
accept = 0
rejected = 0
matrix size = 8
fillins = 0
solver = Normal
Matrix Compiler1: 318 bytes object code size
Matrix Compiler2: 534 bytes object code size
