Circuit: * C:\Users\sethr\OneDrive\Desktop\ECEN-350\ECEN350\HW\Diodes Circuits HW1\DiodesHW1part2.asc

Direct Newton iteration for .op point succeeded.
Semiconductor Device Operating Points:
                        --- Diodes ---
Name:      d1
Model:   d1n4007
Id:     -2.53e-09
Vd:     -1.00e+01
Req:     1.00e+12
CAP:     1.44e-11



Date: Mon Sep 29 16:15:40 2025
Total elapsed time: 0.158 seconds.

tnom = 27
temp = 27
method = trap
totiter = 7
traniter = 0
tranpoints = 0
accept = 0
rejected = 0
matrix size = 4
fillins = 0
solver = Normal
Matrix Compiler1: 100 bytes object code size
Matrix Compiler2: 248 bytes object code size
